48
ZINC01493878
C         -1.09550       -5.00830       -6.92340
N         -1.55200       -4.30380       -5.72280
C         -1.88270       -5.00040       -4.61750
O         -1.80230       -6.21290       -4.61680
C         -2.34450       -4.28780       -3.40310
C         -2.67880       -5.01280       -2.26400
C         -3.11100       -4.32790       -1.13100
C         -3.19030       -2.93890       -1.18770
C         -2.84040       -2.28850       -2.35710
N         -2.43020       -2.96260       -3.41050
O         -3.44710       -4.99790        0.00050
C         -3.44620       -6.35700       -0.03830
C         -2.24470       -7.05050       -0.01780
C         -2.24310       -8.43070       -0.05770
C         -3.44420       -9.12460       -0.11790
C         -4.64640       -8.43010       -0.13790
C         -4.64690       -7.05000       -0.09280
N         -3.44320      -10.52520       -0.15880
C         -2.51080      -11.21870        0.52390
O         -1.62170      -10.62970        1.10800
N         -2.56390      -12.56490        0.55930
C         -1.66550      -13.28000        1.36000
C         -1.25290      -12.75830        2.57920
C         -0.36700      -13.46590        3.36740
C          0.10970      -14.69410        2.94340
C         -0.29930      -15.21590        1.72900
C         -1.18980      -14.51470        0.93940
C          0.22220      -16.55330        1.27020
F         -0.32990      -16.86630        0.02340
F          1.61600      -16.49830        1.16260
F         -0.13540      -17.53670        2.19870
Cl         1.22340      -15.58120        3.93660
H         -0.87600       -4.28430       -7.70810
H         -0.19480       -5.57640       -6.69090
H         -1.87610       -5.68830       -7.26450
H         -1.61620       -3.33590       -5.72330
H         -2.60470       -6.09020       -2.25840
H         -3.52170       -2.37550       -0.32800
H         -2.90050       -1.21120       -2.40520
H         -1.31040       -6.51060        0.02900
H         -1.30780       -8.97040       -0.04240
H         -5.58090       -8.96930       -0.18510
H         -5.58200       -6.50980       -0.10390
H         -4.11370      -10.99570       -0.67850
H         -3.22460      -13.03830        0.02990
H         -1.62440      -11.79970        2.91030
H         -0.04560      -13.06040        4.31540
H         -1.51230      -14.92450       -0.00640
